/*--------------------------------*- C++ -*----------------------------------*\
  =========                 |
  \\      /  F ield         | OpenFOAM: The Open Source CFD Toolbox
   \\    /   O peration     | Website:  https://openfoam.org
    \\  /    A nd           | Version:  6
     \\/     M anipulation  |
\*---------------------------------------------------------------------------*/
FoamFile
{
    version     2.0;
    format      ascii;
    class       dictionary;
    location    "constant";
    object      fvOptions;
}
// * * * * * * * * * * * * * * * * * * * * * * * * * * * * * * * * * * * * * //

advectionSource
{
    type            advectionSource;

    active          yes;

    selectionMode   all;

}
limitT
{
        type            limitTemperature;
        active          yes;
	region		fluid;
        selectionMode   all;
        min             200;
        max             350;
//        phase           gas; // optional
}
// ************************************************************************* //
